# CIF file created by FINDSYM, version 7.1.3

data_findsym-output
_audit_creation_method FINDSYM

_cell_length_a     8.2191900000
_cell_length_b     11.7225100000
_cell_length_c     7.9930300000
_cell_angle_alpha  90.0000000000
_cell_angle_beta   90.0000000000
_cell_angle_gamma  90.0000000000
_cell_volume       770.1247394625

_space_group_magn.number_BNS "62.448"
_space_group_magn.name_UNI "Pn'ma'"
_space_group_magn.name_BNS "Pn'ma'"
_space_group_magn.number_OG "62.8.509"
_space_group_magn.name_OG "Pn'ma'"
_space_group_magn.point_group_number_Litvin "8.4.27"
_space_group_magn.point_group_name_UNI "m'm'm"

loop_
_space_group_magn_transforms.id
_space_group_magn_transforms.Pp_abc
_space_group_magn_transforms.source
1 a,b,c;0,0,0 "BNS"
2 a,b,c;0,0,0 "OG"

loop_
_space_group_symop_magn_operation.id
_space_group_symop_magn_operation.xyz
1 x,y,z,+1 
2 -x,y+1/2,-z,+1 
3 -x,-y,-z,+1 
4 x,-y+1/2,z,+1 
5 x+1/2,-y+1/2,-z+1/2,-1 
6 -x+1/2,-y,z+1/2,-1 
7 -x+1/2,y+1/2,z+1/2,-1 
8 x+1/2,y,-z+1/2,-1 

loop_
_space_group_symop_magn_centering.id
_space_group_symop_magn_centering.xyz
1 x,y,z,+1 

loop_
_atom_site_label
_atom_site_type_symbol
_atom_site_symmetry_multiplicity
_atom_site_Wyckoff_symbol
_atom_site_fract_x
_atom_site_fract_y
_atom_site_fract_z
_atom_site_occupancy
_atom_site_fract_symmform
Co1 Co   4 b  0.00000  0.00000  0.50000  1.00000 0,0,0    
O1  O    8 d  0.42538  0.56597  0.76685  1.00000 Dx,Dy,Dz 
O2  O    8 d  0.23349  0.56600  0.56639  1.00000 Dx,Dy,Dz 
O3  O    8 d  0.53592  0.34547  0.87410  1.00000 Dx,Dy,Dz 
C1  C    8 d  0.29493  0.52831  0.70120  1.00000 Dx,Dy,Dz 
C2  C    4 c  0.53807  0.25000 -0.05017  1.00000 Dx,0,Dz  
H1  H    8 d  0.23151  0.45843  0.76686  1.00000 Dx,Dy,Dz 
H2  H    4 c  0.54157  0.25000  0.08763  1.00000 Dx,0,Dz  
H3  H    8 d  0.03263  0.31878  0.86284  1.00000 Dx,Dy,Dz 
H4  H    4 c  0.16088  0.25000 -0.00660  1.00000 Dx,0,Dz  
H5  H    8 d -0.05587  0.17999  0.14262  1.00000 Dx,Dy,Dz 
N1  N    4 c  0.04455  0.25000 -0.05590  1.00000 Dx,0,Dz  
N2  N    4 c -0.08266  0.25000  0.06882  1.00000 Dx,0,Dz  

loop_
_atom_site_moment.label
_atom_site_moment.crystalaxis_x
_atom_site_moment.crystalaxis_y
_atom_site_moment.crystalaxis_z
_atom_site_moment.symmform
Co1  0.00000  0.00000 -2.68500 Mx,My,Mz 

# end of cif
