# CIF file created by FINDSYM, version 7.1.3

data_findsym-output
_audit_creation_method FINDSYM

_cell_length_a     8.2190300000
_cell_length_b     11.7231700000
_cell_length_c     7.9927900000
_cell_angle_alpha  90.0000000000
_cell_angle_beta   90.0000000000
_cell_angle_gamma  90.0000000000
_cell_volume       770.1299816513

_space_group_magn.number_BNS "62.441"
_space_group_magn.name_UNI "Pnma.1"
_space_group_magn.name_BNS "Pnma"
_space_group_magn.number_OG "62.1.502"
_space_group_magn.name_OG "Pnma"
_space_group_magn.point_group_number_Litvin "8.1.24"
_space_group_magn.point_group_name_UNI "mmm.1"

loop_
_space_group_magn_transforms.id
_space_group_magn_transforms.Pp_abc
_space_group_magn_transforms.source
1 a,b,c;0,0,0 "BNS"
2 a,b,c;0,0,0 "OG"

loop_
_space_group_symop_magn_operation.id
_space_group_symop_magn_operation.xyz
1 x,y,z,+1 
2 x+1/2,-y+1/2,-z+1/2,+1 
3 -x,y+1/2,-z,+1 
4 -x+1/2,-y,z+1/2,+1 
5 -x,-y,-z,+1 
6 -x+1/2,y+1/2,z+1/2,+1 
7 x,-y+1/2,z,+1 
8 x+1/2,y,-z+1/2,+1 

loop_
_space_group_symop_magn_centering.id
_space_group_symop_magn_centering.xyz
1 x,y,z,+1 

loop_
_atom_site_label
_atom_site_type_symbol
_atom_site_symmetry_multiplicity
_atom_site_Wyckoff_symbol
_atom_site_fract_x
_atom_site_fract_y
_atom_site_fract_z
_atom_site_occupancy
_atom_site_fract_symmform
Co1 Co   4 a  0.00000  0.00000  0.00000  1.00000 0,0,0    
O1  O    8 d -0.07474  0.06595  0.76689  1.00000 Dx,Dy,Dz 
O2  O    8 d  0.73344  0.06591  0.56636  1.00000 Dx,Dy,Dz 
O3  O    8 d  0.03583  0.84547  0.87393  1.00000 Dx,Dy,Dz 
C1  C    8 d  0.79495  0.02818  0.70112  1.00000 Dx,Dy,Dz 
C2  C    4 c -0.03802  0.25000  0.05034  1.00000 Dx,0,Dz  
H1  H    8 d  0.73167 -0.04183  0.76663  1.00000 Dx,Dy,Dz 
H2  H    4 c -0.04161  0.25000 -0.08747  1.00000 Dx,0,Dz  
H3  H    8 d  0.53268  0.81877  0.86295  1.00000 Dx,Dy,Dz 
H4  H    4 c  0.33908  0.25000  0.00644  1.00000 Dx,0,Dz  
H5  H    8 d  0.44412  0.68000  0.14274  1.00000 Dx,Dy,Dz 
N1  N    4 c  0.45541  0.25000  0.05577  1.00000 Dx,0,Dz  
N2  N    4 c  0.58265  0.25000 -0.06893  1.00000 Dx,0,Dz  

loop_
_atom_site_moment.label
_atom_site_moment.crystalaxis_x
_atom_site_moment.crystalaxis_y
_atom_site_moment.crystalaxis_z
_atom_site_moment.symmform
Co1 -2.68400  0.00000  0.00000 Mx,My,Mz 

# end of cif
