# CIF file created by FINDSYM, version 7.1.3

data_findsym-output
_audit_creation_method FINDSYM

_cell_length_a     8.9934800000
_cell_length_b     7.8141400000
_cell_length_c     11.6773100000
_cell_angle_alpha  90.0000000000
_cell_angle_beta   90.0000000000
_cell_angle_gamma  90.0000000000
_cell_volume       820.6382786293

_space_group_magn.number_BNS "33.148"
_space_group_magn.name_UNI "Pn'a'2_1"
_space_group_magn.name_BNS "Pn'a'2_1"
_space_group_magn.number_OG "33.5.230"
_space_group_magn.name_OG "Pn'a'2_1"
_space_group_magn.point_group_number_Litvin "7.4.23"
_space_group_magn.point_group_name_UNI "m'm'2"

loop_
_space_group_magn_transforms.id
_space_group_magn_transforms.Pp_abc
_space_group_magn_transforms.source
1 a,b,c;0,0,0 "BNS"
2 a,b,c;0,0,0 "OG"

loop_
_space_group_symop_magn_operation.id
_space_group_symop_magn_operation.xyz
1 x,y,z,+1 
2 -x,-y,z+1/2,+1 
3 -x+1/2,y+1/2,z+1/2,-1 
4 x+1/2,-y+1/2,z,-1 

loop_
_space_group_symop_magn_centering.id
_space_group_symop_magn_centering.xyz
1 x,y,z,+1 

loop_
_atom_site_label
_atom_site_type_symbol
_atom_site_symmetry_multiplicity
_atom_site_Wyckoff_symbol
_atom_site_fract_x
_atom_site_fract_y
_atom_site_fract_z
_atom_site_occupancy
_atom_site_fract_symmform
Mn1 Mn   4 a  0.54900  0.00200  0.88900  1.00000 Dx,Dy,Dz 
O1  O    4 a  0.33300  0.07500  0.81500  1.00000 Dx,Dy,Dz 
O2  O    4 a  0.14300  0.26100  0.81800  1.00000 Dx,Dy,Dz 
O3  O    4 a  0.45100  0.76800 -0.03900  1.00000 Dx,Dy,Dz 
O4  O    4 a  0.26300  0.57900 -0.03600  1.00000 Dx,Dy,Dz 
O5  O    4 a  0.57500  0.84500  0.73000  1.00000 Dx,Dy,Dz 
O6  O    4 a  0.50300  0.85300  0.54600  1.00000 Dx,Dy,Dz 
C1  C    4 a  0.27800  0.21900  0.84000  1.00000 Dx,Dy,Dz 
C2  C    4 a  0.33300  0.70500 -0.08000  1.00000 Dx,Dy,Dz 
C3  C    4 a  0.54600 -0.07500  0.63700  1.00000 Dx,Dy,Dz 
H1  H    4 a  0.34800  0.31400  0.88500  1.00000 Dx,Dy,Dz 
H2  H    4 a  0.28700  0.76200  0.84100  1.00000 Dx,Dy,Dz 
H3  H    4 a  0.56000  0.06600  0.63700  1.00000 Dx,Dy,Dz 
H4  H    4 a  0.07900  0.87400  0.69800  1.00000 Dx,Dy,Dz 
H5  H    4 a  0.08300  0.09100  0.72600  1.00000 Dx,Dy,Dz 
H6  H    4 a  0.14600  0.01600  0.59800  1.00000 Dx,Dy,Dz 
H7  H    4 a -0.09700  0.89700  0.57300  1.00000 Dx,Dy,Dz 
H8  H    4 a -0.07900  0.10600  0.55800  1.00000 Dx,Dy,Dz 
N1  N    4 a  0.06700 -0.00300  0.66250  1.00000 Dx,Dy,Dz 
N2  N    4 a -0.08400  0.00900  0.61800  1.00000 Dx,Dy,Dz 

loop_
_atom_site_moment.label
_atom_site_moment.crystalaxis_x
_atom_site_moment.crystalaxis_y
_atom_site_moment.crystalaxis_z
_atom_site_moment.symmform
Mn1  0.00000 -1.00000  0.00000 Mx,My,Mz 

# end of cif
