# CIF file created by FINDSYM, version 7.1.3

data_findsym-output
_audit_creation_method FINDSYM

_cell_length_a     8.9917800000
_cell_length_b     7.8144900000
_cell_length_c     11.6783900000
_cell_angle_alpha  90.0000000000
_cell_angle_beta   90.0000000000
_cell_angle_gamma  90.0000000000
_cell_volume       820.5957941993

_space_group_magn.number_BNS "33.146"
_space_group_magn.name_UNI "Pn'a2_1'"
_space_group_magn.name_BNS "Pn'a2_1'"
_space_group_magn.number_OG "33.3.228"
_space_group_magn.name_OG "Pn'a2_1'"
_space_group_magn.point_group_number_Litvin "7.3.22"
_space_group_magn.point_group_name_UNI "m'm2'"

loop_
_space_group_magn_transforms.id
_space_group_magn_transforms.Pp_abc
_space_group_magn_transforms.source
1 a,b,c;0,0,0 "BNS"
2 a,b,c;0,0,0 "OG"

loop_
_space_group_symop_magn_operation.id
_space_group_symop_magn_operation.xyz
1 x,y,z,+1 
2 x+1/2,-y+1/2,z,+1 
3 -x,-y,z+1/2,-1 
4 -x+1/2,y+1/2,z+1/2,-1 

loop_
_space_group_symop_magn_centering.id
_space_group_symop_magn_centering.xyz
1 x,y,z,+1 

loop_
_atom_site_label
_atom_site_type_symbol
_atom_site_symmetry_multiplicity
_atom_site_Wyckoff_symbol
_atom_site_fract_x
_atom_site_fract_y
_atom_site_fract_z
_atom_site_occupancy
_atom_site_fract_symmform
Mn1 Mn   4 a  0.04900 -0.00200  0.11100  1.00000 Dx,Dy,Dz 
O1  O    4 a  0.83300 -0.07500  0.18500  1.00000 Dx,Dy,Dz 
O2  O    4 a  0.64300  0.73900  0.18200  1.00000 Dx,Dy,Dz 
O3  O    4 a -0.04900  0.23200  0.03900  1.00000 Dx,Dy,Dz 
O4  O    4 a  0.76300  0.42100  0.03600  1.00000 Dx,Dy,Dz 
O5  O    4 a  0.07500  0.15500  0.27000  1.00000 Dx,Dy,Dz 
O6  O    4 a  0.00300  0.14700  0.45400  1.00000 Dx,Dy,Dz 
C1  C    4 a  0.77700  0.78100  0.16000  1.00000 Dx,Dy,Dz 
C2  C    4 a  0.83300  0.29500  0.08000  1.00000 Dx,Dy,Dz 
C3  C    4 a  0.04600  0.07500  0.36300  1.00000 Dx,Dy,Dz 
H1  H    4 a  0.84700  0.68600  0.11500  1.00000 Dx,Dy,Dz 
H2  H    4 a  0.78700  0.23800  0.15900  1.00000 Dx,Dy,Dz 
H3  H    4 a  0.06000 -0.06600  0.36300  1.00000 Dx,Dy,Dz 
H4  H    4 a  0.57900  0.12600  0.30200  1.00000 Dx,Dy,Dz 
H5  H    4 a  0.58300 -0.09100  0.27400  1.00000 Dx,Dy,Dz 
H6  H    4 a  0.64600 -0.01600  0.40200  1.00000 Dx,Dy,Dz 
H7  H    4 a  0.40300  0.10300  0.42700  1.00000 Dx,Dy,Dz 
H8  H    4 a  0.42100  0.89400  0.44200  1.00000 Dx,Dy,Dz 
N1  N    4 a  0.56600  0.00300  0.33800  1.00000 Dx,Dy,Dz 
N2  N    4 a  0.41600 -0.00900  0.38200  1.00000 Dx,Dy,Dz 

loop_
_atom_site_moment.label
_atom_site_moment.crystalaxis_x
_atom_site_moment.crystalaxis_y
_atom_site_moment.crystalaxis_z
_atom_site_moment.symmform
Mn1  0.00000  0.00000  1.00000 Mx,My,Mz 

# end of cif
