# CIF file created by FINDSYM, version 7.1.3

data_findsym-output
_audit_creation_method FINDSYM

_cell_length_a     8.6253200000
_cell_length_b     7.7269200000
_cell_length_c     11.4633600000
_cell_angle_alpha  90.0000000000
_cell_angle_beta   90.0000000000
_cell_angle_gamma  90.0000000000
_cell_volume       764.0003607106

_space_group_magn.number_BNS "33.148"
_space_group_magn.name_UNI "Pn'a'2_1"
_space_group_magn.name_BNS "Pn'a'2_1"
_space_group_magn.number_OG "33.5.230"
_space_group_magn.name_OG "Pn'a'2_1"
_space_group_magn.point_group_number_Litvin "7.4.23"
_space_group_magn.point_group_name_UNI "m'm'2"

loop_
_space_group_magn_transforms.id
_space_group_magn_transforms.Pp_abc
_space_group_magn_transforms.source
1 a,b,c;0,0,0 "BNS"
2 a,b,c;0,0,0 "OG"

loop_
_space_group_symop_magn_operation.id
_space_group_symop_magn_operation.xyz
1 x,y,z,+1 
2 -x,-y,z+1/2,+1 
3 -x+1/2,y+1/2,z+1/2,-1 
4 x+1/2,-y+1/2,z,-1 

loop_
_space_group_symop_magn_centering.id
_space_group_symop_magn_centering.xyz
1 x,y,z,+1 

loop_
_atom_site_label
_atom_site_type_symbol
_atom_site_symmetry_multiplicity
_atom_site_Wyckoff_symbol
_atom_site_fract_x
_atom_site_fract_y
_atom_site_fract_z
_atom_site_occupancy
_atom_site_fract_symmform
Co1 Co   4 a  0.46307  0.50011  0.49241  1.00000 Dx,Dy,Dz 
O1  O    4 a  0.37188  0.26798  0.56146  1.00000 Dx,Dy,Dz 
O2  O    4 a  0.17977  0.07370  0.56026  1.00000 Dx,Dy,Dz 
O3  O    4 a  0.44023  0.64600  0.64777  1.00000 Dx,Dy,Dz 
O4  O    4 a  0.49438  0.64013  0.83867  1.00000 Dx,Dy,Dz 
O5  O    4 a  0.24828  0.57753  0.41892  1.00000 Dx,Dy,Dz 
O6  O    4 a  0.05484  0.77097  0.42110  1.00000 Dx,Dy,Dz 
C1  C    4 a  0.23488  0.22039  0.53386  1.00000 Dx,Dy,Dz 
C2  C    4 a  0.46705  0.56481  0.74259  1.00000 Dx,Dy,Dz 
C3  C    4 a  0.17931  0.70856  0.46231  1.00000 Dx,Dy,Dz 
H1  H    4 a  0.16232  0.31171  0.48393  1.00000 Dx,Dy,Dz 
H2  H    4 a  0.46607  0.42224  0.74015  1.00000 Dx,Dy,Dz 
H3  H    4 a  0.23111  0.77061  0.53966  1.00000 Dx,Dy,Dz 
H4  H    4 a  0.60289  0.89100  0.82025  1.00000 Dx,Dy,Dz 
H5  H    4 a  0.58444  0.10315  0.83330  1.00000 Dx,Dy,Dz 
H6  H    4 a  0.35293  0.01187  0.78339  1.00000 Dx,Dy,Dz 
H7  H    4 a  0.43031  0.87101  0.68295  1.00000 Dx,Dy,Dz 
H8  H    4 a  0.42882  0.09016  0.65743  1.00000 Dx,Dy,Dz 
N1  N    4 a  0.59369  0.00419  0.77352  1.00000 Dx,Dy,Dz 
N2  N    4 a  0.44089 -0.00584  0.72117  1.00000 Dx,Dy,Dz 

loop_
_atom_site_moment.label
_atom_site_moment.crystalaxis_x
_atom_site_moment.crystalaxis_y
_atom_site_moment.crystalaxis_z
_atom_site_moment.symmform
Co1  0.00000  2.68650  0.00000 Mx,My,Mz 

# end of cif
