# CIF file created by FINDSYM, version 7.1.3

data_findsym-output
_audit_creation_method FINDSYM

_cell_length_a     8.6237900000
_cell_length_b     7.7300400000
_cell_length_c     11.4596800000
_cell_angle_alpha  90.0000000000
_cell_angle_beta   90.0000000000
_cell_angle_gamma  90.0000000000
_cell_volume       763.9279574100

_space_group_magn.number_BNS "33.146"
_space_group_magn.name_UNI "Pn'a2_1'"
_space_group_magn.name_BNS "Pn'a2_1'"
_space_group_magn.number_OG "33.3.228"
_space_group_magn.name_OG "Pn'a2_1'"
_space_group_magn.point_group_number_Litvin "7.3.22"
_space_group_magn.point_group_name_UNI "m'm2'"

loop_
_space_group_magn_transforms.id
_space_group_magn_transforms.Pp_abc
_space_group_magn_transforms.source
1 a,b,c;0,0,0 "BNS"
2 a,b,c;0,0,0 "OG"

loop_
_space_group_symop_magn_operation.id
_space_group_symop_magn_operation.xyz
1 x,y,z,+1 
2 x+1/2,-y+1/2,z,+1 
3 -x,-y,z+1/2,-1 
4 -x+1/2,y+1/2,z+1/2,-1 

loop_
_space_group_symop_magn_centering.id
_space_group_symop_magn_centering.xyz
1 x,y,z,+1 

loop_
_atom_site_label
_atom_site_type_symbol
_atom_site_symmetry_multiplicity
_atom_site_Wyckoff_symbol
_atom_site_fract_x
_atom_site_fract_y
_atom_site_fract_z
_atom_site_occupancy
_atom_site_fract_symmform
Co1 Co   4 a  0.46308  0.49990  0.50761  1.00000 Dx,Dy,Dz 
O1  O    4 a  0.37190  0.73210  0.43838  1.00000 Dx,Dy,Dz 
O2  O    4 a  0.17980 -0.07365  0.43988  1.00000 Dx,Dy,Dz 
O3  O    4 a  0.44029  0.35406  0.35227  1.00000 Dx,Dy,Dz 
O4  O    4 a  0.49458  0.35989  0.16133  1.00000 Dx,Dy,Dz 
O5  O    4 a  0.24827  0.42249  0.58100  1.00000 Dx,Dy,Dz 
O6  O    4 a  0.05483  0.22907  0.57903  1.00000 Dx,Dy,Dz 
C1  C    4 a  0.23493  0.77965  0.46614  1.00000 Dx,Dy,Dz 
C2  C    4 a  0.46712  0.43519  0.25741  1.00000 Dx,Dy,Dz 
C3  C    4 a  0.17928  0.29141  0.53772  1.00000 Dx,Dy,Dz 
H1  H    4 a  0.16241  0.68831  0.51607  1.00000 Dx,Dy,Dz 
H2  H    4 a  0.46605  0.57770  0.25982  1.00000 Dx,Dy,Dz 
H3  H    4 a  0.23107  0.22929  0.46038  1.00000 Dx,Dy,Dz 
H4  H    4 a  0.60293  0.10902  0.17969  1.00000 Dx,Dy,Dz 
H5  H    4 a  0.58447  0.89694  0.16670  1.00000 Dx,Dy,Dz 
H6  H    4 a  0.35292 -0.01174  0.21656  1.00000 Dx,Dy,Dz 
H7  H    4 a  0.43032  0.12900  0.31708  1.00000 Dx,Dy,Dz 
H8  H    4 a  0.42878 -0.09009  0.34255  1.00000 Dx,Dy,Dz 
N1  N    4 a  0.59372 -0.00411  0.22646  1.00000 Dx,Dy,Dz 
N2  N    4 a  0.44088  0.00594  0.27882  1.00000 Dx,Dy,Dz 

loop_
_atom_site_moment.label
_atom_site_moment.crystalaxis_x
_atom_site_moment.crystalaxis_y
_atom_site_moment.crystalaxis_z
_atom_site_moment.symmform
Co1  0.00000  0.00000  2.68400 Mx,My,Mz 

# end of cif
