# CIF file created by FINDSYM, version 7.1.3

data_findsym-output
_audit_creation_method FINDSYM

_cell_length_a     8.6228400000
_cell_length_b     7.7320500000
_cell_length_c     11.4582900000
_cell_angle_alpha  90.0000000000
_cell_angle_beta   90.0000000000
_cell_angle_gamma  90.0000000000
_cell_volume       763.9497465388

_space_group_magn.number_BNS "33.144"
_space_group_magn.name_UNI "Pna2_1.1"
_space_group_magn.name_BNS "Pna2_1"
_space_group_magn.number_OG "33.1.226"
_space_group_magn.name_OG "Pna2_1"
_space_group_magn.point_group_number_Litvin "7.1.20"
_space_group_magn.point_group_name_UNI "mm2.1"

loop_
_space_group_magn_transforms.id
_space_group_magn_transforms.Pp_abc
_space_group_magn_transforms.source
1 a,b,c;0,0,0 "BNS"
2 a,b,c;0,0,0 "OG"

loop_
_space_group_symop_magn_operation.id
_space_group_symop_magn_operation.xyz
1 x,y,z,+1 
2 -x,-y,z+1/2,+1 
3 -x+1/2,y+1/2,z+1/2,+1 
4 x+1/2,-y+1/2,z,+1 

loop_
_space_group_symop_magn_centering.id
_space_group_symop_magn_centering.xyz
1 x,y,z,+1 

loop_
_atom_site_label
_atom_site_type_symbol
_atom_site_symmetry_multiplicity
_atom_site_Wyckoff_symbol
_atom_site_fract_x
_atom_site_fract_y
_atom_site_fract_z
_atom_site_occupancy
_atom_site_fract_symmform
Co1 Co   4 a  0.46305  0.49986  0.50761  1.00000 Dx,Dy,Dz 
O1  O    4 a  0.37183  0.73217  0.43839  1.00000 Dx,Dy,Dz 
O2  O    4 a  0.17976 -0.07356  0.44003  1.00000 Dx,Dy,Dz 
O3  O    4 a  0.44029  0.35399  0.35228  1.00000 Dx,Dy,Dz 
O4  O    4 a  0.49479  0.35984  0.16134  1.00000 Dx,Dy,Dz 
O5  O    4 a  0.24824  0.42254  0.58088  1.00000 Dx,Dy,Dz 
O6  O    4 a  0.05481  0.22913  0.57906  1.00000 Dx,Dy,Dz 
C1  C    4 a  0.23490  0.77974  0.46623  1.00000 Dx,Dy,Dz 
C2  C    4 a  0.46711  0.43513  0.25741  1.00000 Dx,Dy,Dz 
C3  C    4 a  0.17915  0.29153  0.53760  1.00000 Dx,Dy,Dz 
H1  H    4 a  0.16239  0.68843  0.51619  1.00000 Dx,Dy,Dz 
H2  H    4 a  0.46586  0.57760  0.25979  1.00000 Dx,Dy,Dz 
H3  H    4 a  0.23077  0.22955  0.46015  1.00000 Dx,Dy,Dz 
H4  H    4 a  0.60290  0.10905  0.17973  1.00000 Dx,Dy,Dz 
H5  H    4 a  0.58447  0.89701  0.16672  1.00000 Dx,Dy,Dz 
H6  H    4 a  0.35284 -0.01170  0.21654  1.00000 Dx,Dy,Dz 
H7  H    4 a  0.43024  0.12900  0.31709  1.00000 Dx,Dy,Dz 
H8  H    4 a  0.42868 -0.09005  0.34255  1.00000 Dx,Dy,Dz 
N1  N    4 a  0.59368 -0.00406  0.22649  1.00000 Dx,Dy,Dz 
N2  N    4 a  0.44080  0.00596  0.27882  1.00000 Dx,Dy,Dz 

loop_
_atom_site_moment.label
_atom_site_moment.crystalaxis_x
_atom_site_moment.crystalaxis_y
_atom_site_moment.crystalaxis_z
_atom_site_moment.symmform
Co1  2.68200  0.00000  0.00000 Mx,My,Mz 

# end of cif
