# CIF file created by FINDSYM, version 7.1.3

data_findsym-output
_audit_creation_method FINDSYM

_cell_length_a     8.4666800000
_cell_length_b     12.0695300000
_cell_length_c     8.0376600000
_cell_angle_alpha  90.0000000000
_cell_angle_beta   90.0000000000
_cell_angle_gamma  90.0000000000
_cell_volume       821.3592181087

_space_group_magn.number_BNS "62.448"
_space_group_magn.name_UNI "Pn'ma'"
_space_group_magn.name_BNS "Pn'ma'"
_space_group_magn.number_OG "62.8.509"
_space_group_magn.name_OG "Pn'ma'"
_space_group_magn.point_group_number_Litvin "8.4.27"
_space_group_magn.point_group_name_UNI "m'm'm"

loop_
_space_group_magn_transforms.id
_space_group_magn_transforms.Pp_abc
_space_group_magn_transforms.source
1 a,b,c;0,0,0 "BNS"
2 a,b,c;0,0,0 "OG"

loop_
_space_group_symop_magn_operation.id
_space_group_symop_magn_operation.xyz
1 x,y,z,+1 
2 -x,y+1/2,-z,+1 
3 -x,-y,-z,+1 
4 x,-y+1/2,z,+1 
5 x+1/2,-y+1/2,-z+1/2,-1 
6 -x+1/2,-y,z+1/2,-1 
7 -x+1/2,y+1/2,z+1/2,-1 
8 x+1/2,y,-z+1/2,-1 

loop_
_space_group_symop_magn_centering.id
_space_group_symop_magn_centering.xyz
1 x,y,z,+1 

loop_
_atom_site_label
_atom_site_type_symbol
_atom_site_symmetry_multiplicity
_atom_site_Wyckoff_symbol
_atom_site_fract_x
_atom_site_fract_y
_atom_site_fract_z
_atom_site_occupancy
_atom_site_fract_symmform
Mn1 Mn   4 b  0.00000  0.00000  0.50000  1.00000 0,0,0    
O1  O    8 d  0.42800  0.06700  0.75800  1.00000 Dx,Dy,Dz 
O2  O    8 d  0.23800  0.06900  0.56100  1.00000 Dx,Dy,Dz 
O3  O    8 d  0.54500  0.84300  0.87000  1.00000 Dx,Dy,Dz 
C1  C    8 d  0.30400  0.02900  0.68900  1.00000 Dx,Dy,Dz 
C2  C    4 c  0.44900  0.25000  0.05600  1.00000 Dx,0,Dz  
H1  H    8 d  0.25100 -0.04600  0.74600  1.00000 Dx,Dy,Dz 
H2  H    4 c  0.43900  0.25000 -0.08100  1.00000 Dx,0,Dz  
H3  H    8 d  0.03800  0.81700  0.86600  1.00000 Dx,Dy,Dz 
H4  H    4 c  0.84100  0.25000  0.00100  1.00000 Dx,0,Dz  
H5  H    8 d -0.05500  0.68200  0.14200  1.00000 Dx,Dy,Dz 
N1  N    4 c -0.04700  0.25000  0.05300  1.00000 Dx,0,Dz  
N2  N    4 c  0.07900  0.25000 -0.06800  1.00000 Dx,0,Dz  

loop_
_atom_site_moment.label
_atom_site_moment.crystalaxis_x
_atom_site_moment.crystalaxis_y
_atom_site_moment.crystalaxis_z
_atom_site_moment.symmform
Mn1  0.00000  0.00000  1.00000 Mx,My,Mz 

# end of cif
